 12
 
N       10.4802399     2.5556469     2.1680118
N        6.6757317     2.8242692     2.1680118
H       10.4370069     3.0305751     1.3864002
H        6.7189647     2.3493410     1.3864002
H        6.7189647     2.3493410     2.9496233
H       10.4370069     3.0305751     2.9496233
C        9.0005374     2.0930008     2.1680118
C        8.1554342     3.2869152     2.1680118
H        8.8305217     1.5607371     2.9486261
H        8.3254499     3.8191789     2.9486261
H        8.3254499     3.8191789     1.3873974
H        8.8305217     1.5607371     1.3873974
